
     RDKit          3D

 40 42  0  0  0  0  0  0  0  0999 V2000
   -3.8183   -3.5776   -0.8614 C   0  0  0  0  0  0  0  0  0  0  0  0
   -3.1868   -2.2625   -0.5126 C   0  0  0  0  0  0  0  0  0  1  0  0
   -2.1744   -1.7277   -1.3227 C   0  0  0  0  0  0  0  0  0  2  0  0
   -1.5593   -0.5209   -0.9782 C   0  0  0  0  0  0  0  0  0  3  0  0
   -1.9294    0.1554    0.1961 C   0  0  0  0  0  0  0  0  0  4  0  0
   -2.9440   -0.3811    1.0045 C   0  0  0  0  0  0  0  0  0  5  0  0
   -3.5596   -1.5878    0.6592 C   0  0  0  0  0  0  0  0  0  6  0  0
   -1.2899    1.4379    0.5654 C   0  0  0  0  0  0  0  0  0  7  0  0
   -1.9703    2.5621    0.9924 C   0  0  0  0  0  0  0  0  0  8  0  0
   -0.9931    3.5329    1.1024 C   0  0  0  0  0  0  0  0  0  9  0  0
    0.2036    3.0236    0.7508 N   0  0  0  0  0  0  0  0  0 10  0  0
    0.0239    1.7487    0.4395 N   0  0  0  0  0  0  0  0  0 11  0  0
    1.1134    0.8754    0.0973 C   0  0  0  0  0  0  0  0  0 12  0  0
    1.1981   -0.4181    0.6399 C   0  0  0  0  0  0  0  0  0 13  0  0
    2.2684   -1.2538    0.3093 C   0  0  0  0  0  0  0  0  0 14  0  0
    3.2717   -0.8046   -0.5589 C   0  0  0  0  0  0  0  0  0 15  0  0
    3.2070    0.4955   -1.0771 C   0  0  0  0  0  0  0  0  0 16  0  0
    2.1364    1.3318   -0.7475 C   0  0  0  0  0  0  0  0  0 17  0  0
    4.6279   -1.8527   -0.9622 S   0  0  0  0  0  0  0  0  0 18  0  0
    5.8961   -1.6310    0.1910 N   0  0  0  0  0  0  0  0  0 19  0  0
    4.1828   -3.2883   -0.9482 O   0  0  0  0  0  0  0  0  0 20  0  0
    5.1367   -1.5204   -2.3369 O   0  0  0  0  0  0  0  0  0 21  0  0
   -1.2222    4.9702    1.4451 C   0  0  0  0  0  0  0  0  0 22  0  0
   -2.1691    5.0712    2.4481 F   0  0  0  0  0  0  0  0  0 23  0  0
   -1.6709    5.6433    0.3246 F   0  0  0  0  0  0  0  0  0 24  0  0
   -0.0429    5.5468    1.8803 F   0  0  0  0  0  0  0  0  0 25  0  0
   -3.8392   -3.7224   -1.9626 H   0  0  0  0  0  0  0  0  0 26  0  0
   -3.2351   -4.4010   -0.3988 H   0  0  0  0  0  0  0  0  0 27  0  0
   -4.8643   -3.6210   -0.4898 H   0  0  0  0  0  0  0  0  0 28  0  0
   -1.8653   -2.2414   -2.2247 H   0  0  0  0  0  0  0  0  0 29  0  0
   -0.8015   -0.1121   -1.6345 H   0  0  0  0  0  0  0  0  0 30  0  0
   -3.2471    0.1253    1.9127 H   0  0  0  0  0  0  0  0  0 31  0  0
   -4.3268   -1.9954    1.3059 H   0  0  0  0  0  0  0  0  0 32  0  0
   -3.0351    2.6738    1.1520 H   0  0  0  0  0  0  0  0  0 33  0  0
    0.4434   -0.7752    1.3285 H   0  0  0  0  0  0  0  0  0 34  0  0
    2.3179   -2.2471    0.7369 H   0  0  0  0  0  0  0  0  0 35  0  0
    3.9852    0.8632   -1.7336 H   0  0  0  0  0  0  0  0  0 36  0  0
    2.0971    2.3322   -1.1597 H   0  0  0  0  0  0  0  0  0 37  0  0
    5.4903   -1.8308    1.1326 H   0  0  0  0  0  0  0  0  0 38  0  0
    6.1446   -0.6164    0.1795 H   0  0  0  0  0  0  0  0  0 39  0  0
  1  2  1  0
  2  3  2  0
  3  4  1  0
  4  5  2  0
  5  6  1  0
  6  7  2  0
  5  8  1  0
  8  9  2  0
  9 10  1  0
 10 11  2  0
 11 12  1  0
 12 13  1  0
 13 14  2  0
 14 15  1  0
 15 16  2  0
 16 17  1  0
 17 18  2  0
 16 19  1  0
 19 20  1  0
 19 21  2  0
 19 22  2  0
 10 23  1  0
 23 24  1  0
 23 25  1  0
 23 26  1  0
  7  2  1  0
 12  8  1  0
 18 13  1  0
  1 27  1  0
  1 28  1  0
  1 29  1  0
  3 30  1  0
  4 31  1  0
  6 32  1  0
  7 33  1  0
  9 34  1  0
 14 35  1  0
 15 36  1  0
 17 37  1  0
 18 38  1  0
 20 39  1  0
 20 40  1  0
M  END
$$$$
